Version 4
SHEET 1 880 680
WIRE 352 96 240 96
WIRE -16 112 -16 80
WIRE 560 128 464 128
WIRE 352 144 352 96
WIRE 464 144 464 128
WIRE 560 144 560 128
WIRE 464 240 464 224
WIRE 560 240 560 208
WIRE 560 240 464 240
WIRE -16 256 -16 192
WIRE 352 256 352 224
WIRE 464 256 464 240
FLAG -16 256 0
FLAG -16 80 12V
FLAG 352 256 0
FLAG 464 256 0
SYMBOL voltage -16 96 R0
WINDOW 123 0 0 Left 0
WINDOW 39 0 0 Left 0
SYMATTR InstName V1
SYMATTR Value 12
SYMBOL cap 240 80 R90
WINDOW 0 0 32 VBottom 2
WINDOW 3 32 32 VTop 2
SYMATTR InstName C1
SYMBOL res 336 128 R0
SYMATTR InstName R1
SYMBOL res 448 128 R0
SYMATTR InstName R2
SYMBOL cap 544 144 R0
SYMATTR InstName C2
