Version 4
SHEET 1 1700 680
WIRE 720 -128 720 -160
WIRE 960 -112 960 -144
WIRE 1280 -64 1120 -64
WIRE 1504 -64 1344 -64
WIRE 1632 -64 1504 -64
WIRE 720 -32 720 -48
WIRE 912 -32 720 -32
WIRE 720 16 720 -32
WIRE 1504 48 1504 -64
WIRE 240 64 176 64
WIRE 352 64 304 64
WIRE 672 64 352 64
WIRE 960 64 960 -16
WIRE 1120 64 1120 -64
WIRE 1120 64 960 64
WIRE 1136 64 1120 64
WIRE 1360 64 1296 64
WIRE 1360 96 1360 64
WIRE -176 112 -176 48
WIRE 176 112 176 64
WIRE 352 112 352 64
WIRE 560 128 464 128
WIRE 688 128 688 112
WIRE 688 128 560 128
WIRE 464 144 464 128
WIRE 560 144 560 128
WIRE 1216 224 1216 160
WIRE 1360 224 1360 176
WIRE 1360 224 1216 224
WIRE 176 240 176 192
WIRE 464 240 464 224
WIRE 560 240 560 208
WIRE 560 240 464 240
WIRE 1360 240 1360 224
WIRE 1504 240 1504 128
WIRE -176 256 -176 192
WIRE 352 256 352 192
WIRE 464 256 464 240
FLAG -176 256 0
FLAG -176 48 12V
FLAG 352 256 0
FLAG 464 256 0
FLAG 720 -160 12V
FLAG 960 -144 12V
FLAG 1360 240 0
FLAG 1504 240 0
FLAG 176 64 IN
FLAG 176 240 0
FLAG 1632 -64 OUT
SYMBOL voltage -176 96 R0
WINDOW 123 0 0 Left 0
WINDOW 39 0 0 Left 0
SYMATTR InstName V1
SYMATTR Value 12
SYMBOL cap 304 48 R90
WINDOW 0 0 32 VBottom 2
WINDOW 3 32 32 VTop 2
SYMATTR InstName C1
SYMATTR Value 2.2µ
SYMBOL res 336 96 R0
SYMATTR InstName R1
SYMATTR Value 100k
SYMBOL res 448 128 R0
SYMATTR InstName R2
SYMATTR Value 150
SYMBOL cap 544 144 R0
SYMATTR InstName C2
SYMATTR Value 100µ
SYMBOL res 704 -144 R0
SYMATTR InstName R3
SYMATTR Value 5k
SYMBOL nmos 912 -112 R0
SYMATTR InstName M1
SYMATTR Value IRF510
SYMBOL LM317 1216 96 R0
SYMATTR InstName U2
SYMBOL res 1344 80 R0
SYMATTR InstName R4
SYMATTR Value 10
SYMBOL res 1488 32 R0
SYMATTR InstName R5
SYMATTR Value 1k
SYMBOL cap 1344 -80 R90
WINDOW 0 0 32 VBottom 2
WINDOW 3 32 32 VTop 2
SYMATTR InstName C3
SYMATTR Value 470
SYMBOL Misc\\triode 720 64 R0
SYMATTR InstName U1
SYMATTR Value NH12AU7
SYMBOL voltage 176 96 R0
WINDOW 123 24 124 Left 2
WINDOW 39 0 0 Left 0
SYMATTR InstName V2
SYMATTR Value ""
SYMATTR Value2 AC 1
TEXT -56 280 Left 2 !.ac dec 10 10 100k
TEXT -48 384 Left 2 !.include tubes.sub
